/*--------------------------------*- C++ -*----------------------------------*\
| =========                 |                                                 |
| \\      /  F ield         | OpenFOAM: The Open Source CFD Toolbox           |
|  \\    /   O peration     | Version:  2.2.0                                 |
|   \\  /    A nd           | Web:      www.OpenFOAM.org                      |
|    \\/     M anipulation  |                                                 |
\*---------------------------------------------------------------------------*/
FoamFile
{
    version     2.0;
    format      ascii;
    class       dictionary;
    location    "system";
    object      controlDict;
}
// * * * * * * * * * * * * * * * * * * * * * * * * * * * * * * * * * * * * * //


application     solver8FastLoop;

startFrom       latestTime;

startTime       0;

stopAt          endTime;

endTime         10;

deltaT          2.5e-5;

writeControl    adjustableRunTime;
writeInterval   0.1;

purgeWrite      0;

writeFormat     binary;

writePrecision  6;

writeCompression uncompressed;

timeFormat      general;

timePrecision   6;

runTimeModifiable on;

// adjustTimeStep  yes;
adjustTimeStep  no;

maxCo           0.5;

maxDeltaT       1;

libs
(
    "libOpenFOAM.so"
    "libSchneiderbauerSoleimaniAFC1.so"
);

functions
{
       
    fieldAverage1
    {
        type            fieldAverage;
        functionObjectLibs ( "libfieldFunctionObjects.so" );
        outputControl   outputTime;
        fields
        (
            U1
            {
                 mean        on;
                 prime2Mean  off;
                 base        time;
            }

            U2
            {
                 mean        on;
                 prime2Mean  off;
                 base        time;
            }

            alpha1
            {
                 mean        on;
                 prime2Mean  off;
                 base        time;
            }

            p
            {
                 mean        on;
                 prime2Mean  off;
                 base        time;
            }
            
            mu1
            {
                 mean        on;
                 prime2Mean  off;
                 base        time;
            }
        );
    }
    

    
    probes
    {
      type            probes;
      functionObjectLibs ( "libsampling.so" );

      name            probes;
      probeLocations ((5.8 0.175 0)
                      (5.8 0.175 0.0035)
                     (5.8 0.175 0.007)
                     (5.8 0.175 0.0105)
                     (5.8 0.175 0.014)
                     (5.8 0.175 0.0175)
                     (5.8 0.175 0.021)
                     (5.8 0.175 0.0245)
                     (5.8 0.175 0.028)
                     (5.8 0.175 0.0315)
                     (5.8 0.175 0.035));
      fields (U1);
      outputControl timeStep;
      outputInterval 1;
     }
};


// ************************************************************************* //
