/*--------------------------------*- C++ -*----------------------------------*\
| =========                 |                                                 |
| \\      /  F ield         | OpenFOAM: The Open Source CFD Toolbox           |
|  \\    /   O peration     | Version:  2.2.0                                 |
|   \\  /    A nd           | Web:      www.OpenFOAM.org                      |
|    \\/     M anipulation  |                                                 |
\*---------------------------------------------------------------------------*/
FoamFile
{
    version     2.0;
    format      ascii;
    class       volScalarField;
    object      alpha1;
}

// * * * * * * * * * * * * * * * * * * * * * * * * * * * * * * * * * * * * * //

dimensions          [ 0 0 0 0 0 0 0 ];

internalField       uniform 0.00015;

boundaryField
{
    bottom
    {
        type               zeroGradient;
    }

    top
    {
        type               zeroGradient;
    }

    inlet
    {
        type               fixedValue;
        value              uniform 0.00015;
    }

    outlet
    {
        //type            zeroGradient;
        type            inletOutlet;
        inletValue      uniform 0;
    }

    frontBack
    {
        type               empty;
    }

}

// * * * * * * * * * * * * * * * * * * * * * * * * * * * * * * * * * * * * * //


