/*--------------------------------*- C++ -*----------------------------------*\
| =========                 |                                                 |
| \\      /  F ield         | OpenFOAM: The Open Source CFD Toolbox           |
|  \\    /   O peration     | Version:  2.2.0                                 |
|   \\  /    A nd           | Web:      www.OpenFOAM.org                      |
|    \\/     M anipulation  |                                                 |
\*---------------------------------------------------------------------------*/
FoamFile
{
    version     2.0;
    format      ascii;
    class       volScalarField;
    object      Theta;
}
// ************************************************************************* //

dimensions          [ 0 2 -2 0 0 0 0 ];

internalField       uniform 0.01;

boundaryField
{

    bottom
    {
        type            particleThetaSchneiderbauerSchellander;
        restitutionCoefficient 0.9;
        alpha2          0.4;
        muF             0.2;
        //gama              0.0;
        sigma           3.5;
       // muS             0.5;
        //specularityCoefficient 0.15;
        value           uniform 0.01;
       // type               zeroGradient;
    }

    top
    {
        type            particleThetaSchneiderbauerSchellander;
        restitutionCoefficient 0.9;
        alpha2          0.4;
        muF             0.2;
       // gama              0.0;
        sigma           3.5;
       // muS             0.5;
        //specularityCoefficient 0.15;
        value           uniform 0.01;
        //type               zeroGradient;
    }

    inlet
    {
        type                fixedValue;
        value               uniform 0.01;
    }
   
    outlet
    {
        type                inletOutlet;
        phi                 phi1;
        inletValue          uniform 0.01;
    }

    frontBack
    {
        type                empty;
    }
}
