/*--------------------------------*- C++ -*----------------------------------*\
| =========                 |                                                 |
| \\      /  F ield         | OpenFOAM: The Open Source CFD Toolbox           |
|  \\    /   O peration     | Version:  2.2.0                                 |
|   \\  /    A nd           | Web:      www.OpenFOAM.org                      |
|    \\/     M anipulation  |                                                 |
\*---------------------------------------------------------------------------*/
FoamFile
{
    version     2.0;
    format      ascii;
    class       volVectorField;
    object      U2;
}
// * * * * * * * * * * * * * * * * * * * * * * * * * * * * * * * * * * * * * //

dimensions          [ 0 1 -1 0 0 0 0 ];

internalField       uniform (20 0 0);

boundaryField
{
    bottom
    {
        type               fixedValue;
        value              uniform (0 0 0);
        
    }

    top
    {
        type               fixedValue;
        value              uniform (0 0 0);
        
    }

    inlet
    {
        type               fixedValue;
        value              uniform (20 0 0);
    }

    outlet
    {
         type               zeroGradient;
        
    }

    frontBack
    {
        type               empty;
        
       
    }
}
